test/test_files/input_tests/psse_vsc_terminal_modes.raw
0,    100.00, 33, 0, 1, 60.00
GridDyn PSS/E VSC terminal mode import test
Mode 2 is fixed reactive power; mode 1 controls AC voltage
1,'SLACK',230.0000,3,1,1,1,1.000000,0.000000,1.10000,0.90000,1.10000,0.90000
2,'FIXEDQ',230.0000,1,1,1,1,1.020000,0.000000,1.10000,0.90000,1.10000,0.90000
3,'VCTRL', 230.0000,1,1,1,1,0.990000,0.000000,1.10000,0.90000,1.10000,0.90000
0 / END OF BUS DATA, BEGIN LOAD DATA
2,'1 ',1,1,1,10.000,2.000,0.000,0.000,0.000,0.000,1,1
3,'1 ',1,1,1,10.000,2.000,0.000,0.000,0.000,0.000,1,1
0 / END OF LOAD DATA, BEGIN FIXED SHUNT DATA
0 / END OF FIXED SHUNT DATA, BEGIN GENERATOR DATA
1,'1 ',20.000,0.000,100.000,-100.000,1.00000,0,100.000,0.00000,0.10000,0.00000,0.00000,1.00000,1,100.0,100.000,0.000,1,1.0000
0 / END OF GENERATOR DATA, BEGIN BRANCH DATA
1,2,'1 ',0.01000,0.10000,0.00000,100.00,100.00,100.00,0.00000,0.00000,0.00000,0.00000,1,1,1.0,1,1.0000
1,3,'1 ',0.01000,0.10000,0.00000,100.00,100.00,100.00,0.00000,0.00000,0.00000,0.00000,1,1,1.0,1,1.0000
0 / END OF BRANCH DATA, BEGIN TRANSFORMER DATA
0 / END OF TRANSFORMER DATA, BEGIN AREA DATA
0 / END OF AREA DATA, BEGIN TWO-TERMINAL DC DATA
0 / END OF TWO-TERMINAL DC DATA, BEGIN VOLTAGE SOURCE CONVERTER DATA
'VSCDC MODES',1,0.0000,1,1.0,0,1.0,0,1.0,0,1.0
2,1,2,0.000,25.00000,0.0000,0.0000,0.00,100.00,1000.00,0.5000,50.00,-50.00,0,100.00
3,1,1,0.000,0.99000,0.0000,0.0000,0.00,100.00,1000.00,0.5000,50.00,-50.00,0,100.00
0 / END OF VOLTAGE SOURCE CONVERTER DATA, BEGIN IMPEDANCE CORRECTION DATA
0 / END OF IMPEDANCE CORRECTION DATA, BEGIN MULTI-TERMINAL DC DATA
0 / END OF MULTI-TERMINAL DC DATA, BEGIN MULTI-SECTION LINE DATA
0 / END OF MULTI-SECTION LINE DATA, BEGIN ZONE DATA
0 / END OF ZONE DATA, BEGIN INTER-AREA TRANSFER DATA
0 / END OF INTER-AREA TRANSFER DATA, BEGIN OWNER DATA
0 / END OF OWNER DATA, BEGIN FACTS CONTROL DEVICE DATA
0 / END OF FACTS CONTROL DEVICE DATA, BEGIN SWITCHED SHUNT DATA
0 / END OF SWITCHED SHUNT DATA, BEGIN GNE DEVICE DATA
0 / END OF GNE DEVICE DATA
Q
